*** the widlar current mirror ***

* Input source
i_source vcc 1 dc 50uA

* Current mirror circuit
q1 1 1 0 bjt_npn_20v
q2 out 1 0 bjt_npn_20v

* Variable load 
v_load vcc out dc 1V

* DC biasing
vcc 2 0 5V

* Device models
.model bjt_npn_20v npn (is=3.8e-16 bf=220 br=0.7 ise=1.8e-16 ikf=2.5e-2 
+ ikr=3e-2 ne=1.4 vaf=60 var=7 rc=63.4 rb=300 re=19.7 xtb=1.17 xti=5.4 tf=1.5e-10 
+ tr=6e-9 xtf=0.3 vtf=6 itf=5e-5 cje=0.21e-12 mje=0.33 vje=0.7 isc=5e-12 kf=2e-13 
+ af=1.4)

.end
